testData/IEEE39/IEEE39bus_v30.raw
0,    100.00, 30 / PSS(tm)E-30 RAW created by rawd30  WED, JUN 19 2013  11:54
ENGLAND 39 BUS SYSTEM
LOAD LEVEL
     1,' LBUS01     ', 345.0000,1,     0.000,     0.000,   1,   1,1.04736,  -8.4473,   1
     2,' LBUS02     ', 345.0000,1,     0.000,     0.000,   1,   1,1.04874,  -5.7634,   1
     3,' LBUS03     ', 345.0000,1,     0.000,     0.000,   1,   1,1.03017,  -8.6082,   1
     4,' LBUS04     ', 345.0000,1,     0.000,     0.000,   1,   1,1.00386,  -9.6147,   1
     5,' LBUS05     ', 345.0000,1,     0.000,     0.000,   1,   1,1.00531,  -8.6184,   1
     6,' LBUS06     ', 345.0000,1,     0.000,     0.000,   1,   1,1.00767,  -7.9559,   1
     7,' LBUS07     ', 345.0000,1,     0.000,     0.000,   1,   1,0.99700, -10.1303,   1
     8,' LBUS08     ', 345.0000,1,     0.000,     0.000,   1,   1,0.99602, -10.6219,   1
     9,' LBUS09     ', 345.0000,1,     0.000,     0.000,   1,   1,1.02822, -10.3294,   1
    10,' LBUS10     ', 345.0000,1,     0.000,     0.000,   1,   1,1.01715,  -5.4344,   1
    11,' LBUS11     ', 345.0000,1,     0.000,     0.000,   1,   1,1.01269,  -6.2912,   1
    12,' LBUS12     ', 154.0000,1,     0.000,     0.000,   1,   1,1.00015,  -6.2509,   1
    13,' LBUS13     ', 345.0000,1,     0.000,     0.000,   1,   1,1.01430,  -6.1053,   1
    14,' LBUS14     ', 345.0000,1,     0.000,     0.000,   1,   1,1.01173,  -7.6649,   1
    15,' LBUS15     ', 345.0000,1,     0.000,     0.000,   1,   1,1.01538,  -7.7471,   1
    16,' LBUS16     ', 345.0000,1,     0.000,     0.000,   1,   1,1.03177,  -6.1997,   1
    17,' LBUS17     ', 345.0000,1,     0.000,     0.000,   1,   1,1.03355,  -7.3125,   1
    18,' LBUS18     ', 345.0000,1,     0.000,     0.000,   1,   1,1.03093,  -8.2345,   1
    19,' LBUS19     ', 345.0000,1,     0.000,     0.000,   1,   1,1.04986,  -1.0349,   1
    20,' LBUS20     ', 345.0000,1,     0.000,     0.000,   1,   1,0.99118,  -2.0268,   1
    21,' LBUS21     ', 345.0000,1,     0.000,     0.000,   1,   1,1.03176,  -3.7927,   1
    22,' LBUS22     ', 345.0000,1,     0.000,     0.000,   1,   1,1.04979,   0.6562,   1
    23,' LBUS23     ', 345.0000,1,     0.000,     0.000,   1,   1,1.04479,   0.4579,   1
    24,' LBUS24     ', 345.0000,1,     0.000,     0.000,   1,   1,1.03731,  -6.0801,   1
    25,' LBUS25     ', 345.0000,1,     0.000,     0.000,   1,   1,1.05757,  -4.3733,   1
    26,' LBUS26     ', 345.0000,1,     0.000,     0.000,   1,   1,1.05207,  -5.5373,   1
    27,' LBUS27     ', 345.0000,1,     0.000,     0.000,   1,   1,1.03774,  -7.5063,   1
    28,' LBUS28     ', 345.0000,1,     0.000,     0.000,   1,   1,1.05012,  -2.0254,   1
    29,' LBUS29     ', 345.0000,1,     0.000,     0.000,   1,   1,1.04994,   0.7339,   1
    30,' GBUS30     ',  22.0000,2,     0.000,     0.000,   1,   1,1.04750,  -3.3436,   1
    31,' GBUS31     ',  22.0000,3,     0.000,     0.000,   1,   1,0.98200,   0.0000,   1
    32,' GBUS32     ',  22.0000,2,     0.000,     0.000,   1,   1,0.98310,   2.5617,   1
    33,' GBUS33     ',  22.0000,2,     0.000,     0.000,   1,   1,0.99720,   4.1826,   1
    34,' GBUS34     ',  22.0000,2,     0.000,     0.000,   1,   1,1.01230,   3.1629,   1
    35,' GBUS35     ',  22.0000,2,     0.000,     0.000,   1,   1,1.04930,   5.6180,   1
    36,' GBUS36     ',  22.0000,2,     0.000,     0.000,   1,   1,1.06350,   8.3108,   1
    37,' GBUS37     ',  22.0000,2,     0.000,     0.000,   1,   1,1.02780,   2.4112,   1
    38,' GBUS38     ',  22.0000,2,     0.000,     0.000,   1,   1,1.02650,   7.7972,   1
    39,' GBUS39     ', 345.0000,2,     0.000,     0.000,   1,   1,1.03000, -10.0610,   1
 0 / END OF BUS DATA, BEGIN LOAD DATA
     3,'1 ',1,   1,   1,   322.000,     2.400,     0.000,     0.000,     0.000,     0.000,   1
     4,'1 ',1,   1,   1,   500.000,   184.000,     0.000,     0.000,     0.000,     0.000,   1
     7,'1 ',1,   1,   1,   233.800,    84.000,     0.000,     0.000,     0.000,     0.000,   1
     8,'1 ',1,   1,   1,   522.000,   176.000,     0.000,     0.000,     0.000,     0.000,   1
    12,'1 ',1,   1,   1,     7.500,    88.000,     0.000,     0.000,     0.000,     0.000,   1
    15,'1 ',1,   1,   1,   320.000,   153.000,     0.000,     0.000,     0.000,     0.000,   1
    16,'1 ',1,   1,   1,   329.400,    32.300,     0.000,     0.000,     0.000,     0.000,   1
    18,'1 ',1,   1,   1,   158.000,    30.000,     0.000,     0.000,     0.000,     0.000,   1
    20,'1 ',1,   1,   1,   628.000,   103.000,     0.000,     0.000,     0.000,     0.000,   1
    21,'1 ',1,   1,   1,   274.000,   115.000,     0.000,     0.000,     0.000,     0.000,   1
    23,'1 ',1,   1,   1,   247.500,    84.600,     0.000,     0.000,     0.000,     0.000,   1
    24,'1 ',1,   1,   1,   308.600,   -92.200,     0.000,     0.000,     0.000,     0.000,   1
    25,'1 ',1,   1,   1,   224.000,    47.200,     0.000,     0.000,     0.000,     0.000,   1
    26,'1 ',1,   1,   1,   139.000,    17.000,     0.000,     0.000,     0.000,     0.000,   1
    27,'1 ',1,   1,   1,   281.000,    75.500,     0.000,     0.000,     0.000,     0.000,   1
    28,'1 ',1,   1,   1,   206.000,    27.600,     0.000,     0.000,     0.000,     0.000,   1
    29,'1 ',1,   1,   1,   283.500,    26.900,     0.000,     0.000,     0.000,     0.000,   1
    31,'1 ',1,   1,   1,     9.200,     4.600,     0.000,     0.000,     0.000,     0.000,   1
    39,'1 ',1,   1,   1,  1104.000,   250.000,     0.000,     0.000,     0.000,     0.000,   1
 0 / END OF LOAD DATA, BEGIN GENERATOR DATA
    30,'1 ',   250.000,   146.154,  9900.000, -9999.000,1.04750,     0,   300.000,   0.00000,   0.22400,   0.00000,   0.00000,1.00000,1,  100.0,  9999.000, -9999.000,   1,1.0000,   0,0.0000,   0,0.0000,   0,0.0000
    31,'1 ',   521.207,   198.319,  9900.000, -9999.000,0.98200,     0,   612.000,   0.00000,   0.20290,   0.00000,   0.00000,1.00000,1,  100.0,  9999.000, -9999.000,   1,1.0000,   0,0.0000,   0,0.0000,   0,0.0000
    32,'1 ',   650.000,   205.154,  9900.000, -9999.000,0.98310,     0,   765.000,   0.00000,   0.28050,   0.00000,   0.00000,1.00000,1,  100.0,  9999.000, -9999.000,   1,1.0000,   0,0.0000,   0,0.0000,   0,0.0000
    33,'1 ',   632.000,   109.911,  9900.000, -9999.000,0.99720,     0,   700.000,   0.00000,   0.23300,   0.00000,   0.00000,1.00000,1,  100.0,  9999.000, -9999.000,   1,1.0000,   0,0.0000,   0,0.0000,   0,0.0000
    34,'1 ',   508.000,   165.765,  9900.000, -9999.000,1.01230,     0,   613.000,   0.00000,   0.20290,   0.00000,   0.00000,1.00000,1,  100.0,  9999.000, -9999.000,   1,1.0000,   0,0.0000,   0,0.0000,   0,0.0000
    35,'1 ',   650.000,   212.417,  9900.000, -9999.000,1.04930,     0,   798.000,   0.00000,   0.31400,   0.00000,   0.00000,1.00000,1,  100.0,  9999.000, -9999.000,   1,1.0000,   0,0.0000,   0,0.0000,   0,0.0000
    36,'1 ',   560.000,   101.178,  9900.000, -9999.000,1.06350,     0,   660.000,   0.00000,   0.21500,   0.00000,   0.00000,1.00000,1,  100.0,  9999.000, -9999.000,   1,1.0000,   0,0.0000,   0,0.0000,   0,0.0000
    37,'1 ',   540.000,     0.445,  9900.000, -9999.000,1.02780,     0,   660.000,   0.00000,   0.21500,   0.00000,   0.00000,1.00000,1,  100.0,  9999.000, -9999.000,   1,1.0000,   0,0.0000,   0,0.0000,   0,0.0000
    38,'1 ',   830.000,    22.844,  9900.000, -9999.000,1.02650,     0,  1151.000,   0.00000,   0.24600,   0.00000,   0.00000,1.00000,1,  100.0,  9999.000, -9999.000,   1,1.0000,   0,0.0000,   0,0.0000,   0,0.0000
    39,'1 ',  1000.000,    88.281,  9900.000, -9999.000,1.03000,     0,   100.000,   0.00000,   0.00500,   0.00000,   0.00000,1.00000,1,  100.0,  9999.000, -9999.000,   1,1.0000,   0,0.0000,   0,0.0000,   0,0.0000
 0 / END OF GENERATOR DATA, BEGIN NON-TRANSFORMER BRANCH DATA
     1,      2,'1 ',   0.00350,   0.04110,   0.69870,    0.00,    0.00,    0.00,  0.00000,  0.00000,  0.00000,  0.00000,1,   0.00,   1,1.0000,   0,0.0000,   0,0.0000,   0,0.0000
     1,     39,'1 ',   0.00100,   0.02500,   0.75000,    0.00,    0.00,    0.00,  0.00000,  0.00000,  0.00000,  0.00000,1,   0.00,   1,1.0000,   0,0.0000,   0,0.0000,   0,0.0000
     2,      3,'1 ',   0.00130,   0.01510,   0.25720,    0.00,    0.00,    0.00,  0.00000,  0.00000,  0.00000,  0.00000,1,   0.00,   1,1.0000,   0,0.0000,   0,0.0000,   0,0.0000
     2,     25,'1 ',   0.00700,   0.00860,   0.14600,    0.00,    0.00,    0.00,  0.00000,  0.00000,  0.00000,  0.00000,1,   0.00,   1,1.0000,   0,0.0000,   0,0.0000,   0,0.0000
     3,      4,'1 ',   0.00130,   0.02130,   0.22140,    0.00,    0.00,    0.00,  0.00000,  0.00000,  0.00000,  0.00000,1,   0.00,   1,1.0000,   0,0.0000,   0,0.0000,   0,0.0000
     3,     18,'1 ',   0.00110,   0.01330,   0.21380,    0.00,    0.00,    0.00,  0.00000,  0.00000,  0.00000,  0.00000,1,   0.00,   1,1.0000,   0,0.0000,   0,0.0000,   0,0.0000
     4,      5,'1 ',   0.00080,   0.01280,   0.13420,    0.00,    0.00,    0.00,  0.00000,  0.00000,  0.00000,  0.00000,1,   0.00,   1,1.0000,   0,0.0000,   0,0.0000,   0,0.0000
     4,     14,'1 ',   0.00080,   0.01290,   0.13820,    0.00,    0.00,    0.00,  0.00000,  0.00000,  0.00000,  0.00000,1,   0.00,   1,1.0000,   0,0.0000,   0,0.0000,   0,0.0000
     5,      6,'1 ',   0.00020,   0.00260,   0.04340,    0.00,    0.00,    0.00,  0.00000,  0.00000,  0.00000,  0.00000,1,   0.00,   1,1.0000,   0,0.0000,   0,0.0000,   0,0.0000
     5,      8,'1 ',   0.00080,   0.01120,   0.14760,    0.00,    0.00,    0.00,  0.00000,  0.00000,  0.00000,  0.00000,1,   0.00,   1,1.0000,   0,0.0000,   0,0.0000,   0,0.0000
     6,      7,'1 ',   0.00060,   0.00920,   0.11300,    0.00,    0.00,    0.00,  0.00000,  0.00000,  0.00000,  0.00000,1,   0.00,   1,1.0000,   0,0.0000,   0,0.0000,   0,0.0000
     6,     11,'1 ',   0.00070,   0.00820,   0.13890,    0.00,    0.00,    0.00,  0.00000,  0.00000,  0.00000,  0.00000,1,   0.00,   1,1.0000,   0,0.0000,   0,0.0000,   0,0.0000
     7,      8,'1 ',   0.00040,   0.00460,   0.07800,    0.00,    0.00,    0.00,  0.00000,  0.00000,  0.00000,  0.00000,1,   0.00,   1,1.0000,   0,0.0000,   0,0.0000,   0,0.0000
     8,      9,'1 ',   0.00230,   0.03630,   0.38040,    0.00,    0.00,    0.00,  0.00000,  0.00000,  0.00000,  0.00000,1,   0.00,   1,1.0000,   0,0.0000,   0,0.0000,   0,0.0000
     9,     39,'1 ',   0.00100,   0.02500,   1.20000,    0.00,    0.00,    0.00,  0.00000,  0.00000,  0.00000,  0.00000,1,   0.00,   1,1.0000,   0,0.0000,   0,0.0000,   0,0.0000
    10,     11,'1 ',   0.00040,   0.00430,   0.07290,    0.00,    0.00,    0.00,  0.00000,  0.00000,  0.00000,  0.00000,1,   0.00,   1,1.0000,   0,0.0000,   0,0.0000,   0,0.0000
    10,     13,'1 ',   0.00040,   0.00430,   0.07290,    0.00,    0.00,    0.00,  0.00000,  0.00000,  0.00000,  0.00000,1,   0.00,   1,1.0000,   0,0.0000,   0,0.0000,   0,0.0000
    13,     14,'1 ',   0.00090,   0.01010,   0.17230,    0.00,    0.00,    0.00,  0.00000,  0.00000,  0.00000,  0.00000,1,   0.00,   1,1.0000,   0,0.0000,   0,0.0000,   0,0.0000
    14,     15,'1 ',   0.00180,   0.02170,   0.36600,    0.00,    0.00,    0.00,  0.00000,  0.00000,  0.00000,  0.00000,1,   0.00,   1,1.0000,   0,0.0000,   0,0.0000,   0,0.0000
    15,     16,'1 ',   0.00090,   0.00940,   0.17100,    0.00,    0.00,    0.00,  0.00000,  0.00000,  0.00000,  0.00000,1,   0.00,   1,1.0000,   0,0.0000,   0,0.0000,   0,0.0000
    16,     17,'1 ',   0.00070,   0.00890,   0.13420,    0.00,    0.00,    0.00,  0.00000,  0.00000,  0.00000,  0.00000,1,   0.00,   1,1.0000,   0,0.0000,   0,0.0000,   0,0.0000
    16,     19,'1 ',   0.00160,   0.01950,   0.30400,    0.00,    0.00,    0.00,  0.00000,  0.00000,  0.00000,  0.00000,1,   0.00,   1,1.0000,   0,0.0000,   0,0.0000,   0,0.0000
    16,     21,'1 ',   0.00080,   0.01350,   0.25480,    0.00,    0.00,    0.00,  0.00000,  0.00000,  0.00000,  0.00000,1,   0.00,   1,1.0000,   0,0.0000,   0,0.0000,   0,0.0000
    16,     24,'1 ',   0.00030,   0.00590,   0.06800,    0.00,    0.00,    0.00,  0.00000,  0.00000,  0.00000,  0.00000,1,   0.00,   1,1.0000,   0,0.0000,   0,0.0000,   0,0.0000
    17,     18,'1 ',   0.00070,   0.00820,   0.13190,    0.00,    0.00,    0.00,  0.00000,  0.00000,  0.00000,  0.00000,1,   0.00,   1,1.0000,   0,0.0000,   0,0.0000,   0,0.0000
    17,     27,'1 ',   0.00130,   0.01730,   0.32160,    0.00,    0.00,    0.00,  0.00000,  0.00000,  0.00000,  0.00000,1,   0.00,   1,1.0000,   0,0.0000,   0,0.0000,   0,0.0000
    21,     22,'1 ',   0.00080,   0.01400,   0.25650,    0.00,    0.00,    0.00,  0.00000,  0.00000,  0.00000,  0.00000,1,   0.00,   1,1.0000,   0,0.0000,   0,0.0000,   0,0.0000
    22,     23,'1 ',   0.00060,   0.00960,   0.18460,    0.00,    0.00,    0.00,  0.00000,  0.00000,  0.00000,  0.00000,1,   0.00,   1,1.0000,   0,0.0000,   0,0.0000,   0,0.0000
    23,     24,'1 ',   0.00220,   0.03500,   0.36100,    0.00,    0.00,    0.00,  0.00000,  0.00000,  0.00000,  0.00000,1,   0.00,   1,1.0000,   0,0.0000,   0,0.0000,   0,0.0000
    25,     26,'1 ',   0.00320,   0.03230,   0.51300,    0.00,    0.00,    0.00,  0.00000,  0.00000,  0.00000,  0.00000,1,   0.00,   1,1.0000,   0,0.0000,   0,0.0000,   0,0.0000
    26,     27,'1 ',   0.00140,   0.01470,   0.23960,    0.00,    0.00,    0.00,  0.00000,  0.00000,  0.00000,  0.00000,1,   0.00,   1,1.0000,   0,0.0000,   0,0.0000,   0,0.0000
    26,     28,'1 ',   0.00430,   0.04740,   0.78020,    0.00,    0.00,    0.00,  0.00000,  0.00000,  0.00000,  0.00000,1,   0.00,   1,1.0000,   0,0.0000,   0,0.0000,   0,0.0000
    26,     29,'1 ',   0.00570,   0.06250,   1.02900,    0.00,    0.00,    0.00,  0.00000,  0.00000,  0.00000,  0.00000,1,   0.00,   1,1.0000,   0,0.0000,   0,0.0000,   0,0.0000
    28,     29,'1 ',   0.00140,   0.01510,   0.24900,    0.00,    0.00,    0.00,  0.00000,  0.00000,  0.00000,  0.00000,1,   0.00,   1,1.0000,   0,0.0000,   0,0.0000,   0,0.0000
 0 / END OF NON-TRANSFORMER BRANCH DATA, BEGIN TRANSFORMER DATA
     6,    31,     0,'1 ',1,1,1,   0.00000,   0.00000,2,'            ',1,   1,1.0000,   0,0.0000,   0,0.0000,   0,0.0000
   0.00000,   0.02500,  100.00
1.07000,   0.000,   0.000,    0.00,    0.00,    0.00, 1,     -6, 1.10000, 0.90000, 1.17000, 0.91000,  33, 0, 0.00000, 0.00000
1.00000,   0.000
     2,    30,     0,'1 ',1,1,1,   0.00000,   0.00000,2,'            ',1,   1,1.0000,   0,0.0000,   0,0.0000,   0,0.0000
   0.00000,   0.01810,  100.00
1.02500,   0.000,   0.000,    0.00,    0.00,    0.00, 0,      0, 1.10000, 0.90000, 1.10000, 0.90000, 999, 0, 0.00000, 0.00000
1.00000,   0.000
    10,    32,     0,'1 ',1,1,1,   0.00000,   0.00000,2,'            ',1,   1,1.0000,   0,0.0000,   0,0.0000,   0,0.0000
   0.00000,   0.02000,  100.00
1.07000,   0.000,   0.000,    0.00,    0.00,    0.00, 0,      0, 1.10000, 0.90000, 1.10000, 0.90000, 999, 0, 0.00000, 0.00000
1.00000,   0.000
    12,    11,     0,'1 ',1,1,1,   0.00000,   0.00000,2,'            ',1,   1,1.0000,   0,0.0000,   0,0.0000,   0,0.0000
   0.00160,   0.04350,  100.00
1.00600,   0.000,   0.000,    0.00,    0.00,    0.00, 0,      0, 1.10000, 0.90000, 1.10000, 0.90000, 999, 0, 0.00000, 0.00000
1.00000,   0.000
    12,    13,     0,'1 ',1,1,1,   0.00000,   0.00000,2,'            ',1,   1,1.0000,   0,0.0000,   0,0.0000,   0,0.0000
   0.00160,   0.04350,  100.00
1.00600,   0.000,   0.000,    0.00,    0.00,    0.00, 0,      0, 1.10000, 0.90000, 1.10000, 0.90000, 999, 0, 0.00000, 0.00000
1.00000,   0.000
    19,    20,     0,'1 ',1,1,1,   0.00000,   0.00000,2,'            ',1,   1,1.0000,   0,0.0000,   0,0.0000,   0,0.0000
   0.00070,   0.01380,  100.00
1.06000,   0.000,   0.000,    0.00,    0.00,    0.00, 0,      0, 1.10000, 0.90000, 1.10000, 0.90000, 999, 0, 0.00000, 0.00000
1.00000,   0.000
    19,    33,     0,'1 ',1,1,1,   0.00000,   0.00000,2,'            ',1,   1,1.0000,   0,0.0000,   0,0.0000,   0,0.0000
   0.00070,   0.01420,  100.00
1.07000,   0.000,   0.000,    0.00,    0.00,    0.00, 0,      0, 1.10000, 0.90000, 1.10000, 0.90000, 999, 0, 0.00000, 0.00000
1.00000,   0.000
    20,    34,     0,'1 ',1,1,1,   0.00000,   0.00000,2,'            ',1,   1,1.0000,   0,0.0000,   0,0.0000,   0,0.0000
   0.00090,   0.01800,  100.00
1.00900,   0.000,   0.000,    0.00,    0.00,    0.00, 0,      0, 1.10000, 0.90000, 1.10000, 0.90000, 999, 0, 0.00000, 0.00000
1.00000,   0.000
    22,    35,     0,'1 ',1,1,1,   0.00000,   0.00000,2,'            ',1,   1,1.0000,   0,0.0000,   0,0.0000,   0,0.0000
   0.00000,   0.01430,  100.00
1.02500,   0.000,   0.000,    0.00,    0.00,    0.00, 0,      0, 1.10000, 0.90000, 1.10000, 0.90000, 999, 0, 0.00000, 0.00000
1.00000,   0.000
    23,    36,     0,'1 ',1,1,1,   0.00000,   0.00000,2,'            ',1,   1,1.0000,   0,0.0000,   0,0.0000,   0,0.0000
   0.00050,   0.02720,  100.00
1.00000,   0.000,   0.000,    0.00,    0.00,    0.00, 0,      0, 1.10000, 0.90000, 1.10000, 0.90000, 999, 0, 0.00000, 0.00000
1.00000,   0.000
    25,    37,     0,'1 ',1,1,1,   0.00000,   0.00000,2,'            ',1,   1,1.0000,   0,0.0000,   0,0.0000,   0,0.0000
   0.00060,   0.02320,  100.00
1.02500,   0.000,   0.000,    0.00,    0.00,    0.00, 0,      0, 1.10000, 0.90000, 1.10000, 0.90000, 999, 0, 0.00000, 0.00000
1.00000,   0.000
    29,    38,     0,'1 ',1,1,1,   0.00000,   0.00000,2,'            ',1,   1,1.0000,   0,0.0000,   0,0.0000,   0,0.0000
   0.00080,   0.01560,  100.00
1.02500,   0.000,   0.000,    0.00,    0.00,    0.00, 0,      0, 1.10000, 0.90000, 1.10000, 0.90000, 999, 0, 0.00000, 0.00000
1.00000,   0.000
 0 / END OF TRANSFORMER DATA, BEGIN AREA INTERCHANGE DATA
 0 / END OF AREA INTERCHANGE DATA, BEGIN TWO-TERMINAL DC DATA
 0 / END OF TWO-TERMINAL DC DATA, BEGIN VSC DC LINE DATA
 0 / END OF VSC DC LINE DATA, BEGIN SWITCHED SHUNT DATA
 0 / END OF SWITCHED SHUNT DATA, BEGIN TRANS. IMP. CORR. TABLE DATA
 0 / END OF TRANS. IMP. CORR. TABLE DATA, BEGIN MULTI-TERMINAL DC LINE DATA
 0 / END OF MULTI-TERMINAL DC LINE DATA, BEGIN MULTI-SECTION LINE DATA
 0 / END OF MULTI-SECTION LINE DATA, BEGIN ZONE DATA
 0 / END OF ZONE DATA, BEGIN INTERAREA TRANSFER DATA
 0 / END OF INTERAREA TRANSFER DATA, BEGIN OWNER DATA
 0 / END OF OWNER DATA, BEGIN FACTS DEVICE DATA
 0 / END OF FACTS DEVICE DATA, END OF CASE DATA
